/*--------------------------------*- C++ -*----------------------------------*\
| =========                 |                                                 |
| \\      /  F ield         | OpenFOAM: The Open Source CFD Toolbox           |
|  \\    /   O peration     | Version:  v2012                                 |
|   \\  /    A nd           | Website:  www.openfoam.com                      |
|    \\/     M anipulation  |                                                 |
\*---------------------------------------------------------------------------*/
FoamFile
{
    version     2.0;
    format      ascii;
    class       polyBoundaryMesh;
    location    "constant/polyMesh";
    object      boundary;
}
// * * * * * * * * * * * * * * * * * * * * * * * * * * * * * * * * * * * * * //

7
(
    frontback
    {
        type            empty;
        inGroups        1(empty);
        nFaces          30670;
        startFace       22766;
    }
    topbottom
    {
        type            patch;
        physicalType    patch;
        nFaces          96;
        startFace       53436;
    }
    outlet
    {
        type            patch;
        physicalType    patch;
        nFaces          33;
        startFace       53532;
    }
    inlet
    {
        type            patch;
        physicalType    patch;
        nFaces          0;
        startFace       53565;
    }
    walls
    {
        type            wall;
        inGroups        1(wall);
        nFaces          52;
        startFace       53565;
    }
    procBoundary3to1
    {
        type            processor;
        inGroups        1(processor);
        nFaces          184;
        startFace       53617;
        matchTolerance  0.0001;
        transform       unknown;
        myProcNo        3;
        neighbProcNo    1;
    }
    procBoundary3to2
    {
        type            processor;
        inGroups        1(processor);
        nFaces          108;
        startFace       53801;
        matchTolerance  0.0001;
        transform       unknown;
        myProcNo        3;
        neighbProcNo    2;
    }
)

// ************************************************************************* //
